24

Au   30.0000000000    0.0000000000    0.0000000000
Au   18.7046940558   23.4549444740    0.0000000000
Au   -6.6756280187   29.2478373655    0.0000000000
Au  -27.0290660371   13.0165121735    0.0000000000
Au  -27.0290660371  -13.0165121735    0.0000000000
Au   -6.6756280187  -29.2478373655    0.0000000000
Au   18.7046940558  -23.4549444740    0.0000000000
Au    0.0000000000    0.0000000000    0.0000000000
Au   27.8225153615   11.2208573183   25.0000000000
Au    8.5742350783   28.7486085372   25.0000000000
Au  -17.1306191015   24.6280711628   25.0000000000
Au  -29.9357676968    1.9620938818   25.0000000000
Au  -20.1986726381  -22.1813801117   25.0000000000
Au    4.7484348949  -29.6218224633   25.0000000000
Au   26.1198741017  -14.7564283250   25.0000000000
Au    0.0000000000    0.0000000000   25.0000000000
Au   21.6061574029   20.8128316738   50.0000000000
Au   -2.8009082438   29.8689623691   50.0000000000
Au  -25.0988328548   16.4331551847   50.0000000000
Au  -28.4968244032   -9.3771530291   50.0000000000
Au  -10.4361259467  -28.1262737529   50.0000000000
Au   15.4831882058  -25.6957366694   50.0000000000
Au   29.7433458399   -3.9157857763   50.0000000000
Au    0.0000000000    0.0000000000   50.0000000000
