24

Au   30.0000000000    0.0000000000    0.0000000000
Au   18.7046940558   23.4549444740    0.0000000000
Au   -6.6756280187   29.2478373655    0.0000000000
Au  -27.0290660371   13.0165121735    0.0000000000
Au  -27.0290660371  -13.0165121735    0.0000000000
Au   -6.6756280187  -29.2478373655    0.0000000000
Au   18.7046940558  -23.4549444740    0.0000000000
Au    0.0000000000    0.0000000000    0.0000000000
Au   29.9986886782    0.2804952530   25.0000000000
Au   18.4845764405   23.6288051711   25.0000000000
Au   -6.9487988736   29.1841428556   25.0000000000
Au  -27.1495869062   12.7632257217   25.0000000000
Au  -26.9061822478  -13.2686607029   25.0000000000
Au   -6.4018735707  -29.3089749869   25.0000000000
Au   18.9231764795  -23.2790333116   25.0000000000
Au    0.0000000000    0.0000000000   25.0000000000
Au   29.9947548275    0.5609659848   50.0000000000
Au   18.2628428767   23.8006002038   50.0000000000
Au   -7.2213622544   29.1178970256   50.0000000000
Au  -27.2677343190   12.5088234902   50.0000000000
Au  -26.7809462810  -13.5196492667   50.0000000000
Au   -6.1275594617  -29.3675503753   50.0000000000
Au   19.1400046117  -23.1010870624   50.0000000000
Au    0.0000000000    0.0000000000   50.0000000000
