24

Au   30.0000000000    0.0000000000    0.0000000000
Au   18.7046940558   23.4549444740    0.0000000000
Au   -6.6756280187   29.2478373655    0.0000000000
Au  -27.0290660371   13.0165121735    0.0000000000
Au  -27.0290660371  -13.0165121735    0.0000000000
Au   -6.6756280187  -29.2478373655    0.0000000000
Au   18.7046940558  -23.4549444740    0.0000000000
Au    0.0000000000    0.0000000000    0.0000000000
Au   28.0274682098   10.6986459773   25.0000000000
Au    9.1103023559   28.5832536809   25.0000000000
Au  -16.6671069883   24.9440883706   25.0000000000
Au  -29.8938448233    2.5215157506   25.0000000000
Au  -20.6099077830  -21.7998096591   25.0000000000
Au    4.1937101833  -29.7054337605   25.0000000000
Au   25.8393788456  -15.2422603598   25.0000000000
Au    0.0000000000    0.0000000000   25.0000000000
Au   22.3692649502   19.9903973345   50.0000000000
Au   -1.6821134116   29.9528044508   50.0000000000
Au  -24.4668260656   17.3601388899   50.0000000000
Au  -28.8275196599   -8.3050653375   50.0000000000
Au  -11.4805029760  -27.7163859732   50.0000000000
Au   14.5115666083  -26.2567026599   50.0000000000
Au   29.5761305546   -5.0251867046   50.0000000000
Au    0.0000000000    0.0000000000   50.0000000000
