24

Au   30.0000000000    0.0000000000    0.0000000000
Au   18.7046940558   23.4549444740    0.0000000000
Au   -6.6756280187   29.2478373655    0.0000000000
Au  -27.0290660371   13.0165121735    0.0000000000
Au  -27.0290660371  -13.0165121735    0.0000000000
Au   -6.6756280187  -29.2478373655    0.0000000000
Au   18.7046940558  -23.4549444740    0.0000000000
Au    0.0000000000    0.0000000000    0.0000000000
Au   29.0491056641    7.4932943432   25.0000000000
Au   12.2533277098   27.3834979511   25.0000000000
Au  -13.7694559323   26.6533690802   25.0000000000
Au  -29.4235584117    5.8527096624   25.0000000000
Au  -22.9211212759  -19.3551595048   25.0000000000
Au    0.8413876864  -29.9881987915   25.0000000000
Au   23.9703145596  -18.0395127405   25.0000000000
Au    0.0000000000    0.0000000000   25.0000000000
Au   26.2567026591   14.5115666098   50.0000000000
Au    5.0251867029   29.5761305549   50.0000000000
Au  -19.9903973357   22.3692649490   50.0000000000
Au  -29.9528044507   -1.6821134133   50.0000000000
Au  -17.3601388885  -24.4668260666   50.0000000000
Au    8.3050653391  -28.8275196594   50.0000000000
Au   27.7163859739  -11.4805029745   50.0000000000
Au    0.0000000000    0.0000000000   50.0000000000
