24

Au   30.0000000000    0.0000000000    0.0000000000
Au   18.7046940558   23.4549444740    0.0000000000
Au   -6.6756280187   29.2478373655    0.0000000000
Au  -27.0290660371   13.0165121735    0.0000000000
Au  -27.0290660371  -13.0165121735    0.0000000000
Au   -6.6756280187  -29.2478373655    0.0000000000
Au   18.7046940558  -23.4549444740    0.0000000000
Au    0.0000000000    0.0000000000    0.0000000000
Au   29.1178970245    7.2213622585   25.0000000000
Au   12.5088234863   27.2677343208   25.0000000000
Au  -13.5196492706   26.7809462790   25.0000000000
Au  -29.3675503761    6.1275594574   25.0000000000
Au  -23.1010870596  -19.1400046150   25.0000000000
Au    0.5609659891  -29.9947548275   25.0000000000
Au   23.8006002064  -18.2628428733   25.0000000000
Au    0.0000000000    0.0000000000   25.0000000000
Au   26.5234618087   14.0180588414   50.0000000000
Au    5.5773482224   29.4769941956   50.0000000000
Au  -19.5686223325   22.7391516994   50.0000000000
Au  -29.9790211439   -1.1217358206   50.0000000000
Au  -17.8146055734  -24.1379333884   50.0000000000
Au    7.7645713457  -28.9777747907   50.0000000000
Au   27.4968676730  -11.9967607366   50.0000000000
Au    0.0000000000    0.0000000000   50.0000000000
