24

Au   30.0000000000    0.0000000000    0.0000000000
Au   18.7046940558   23.4549444740    0.0000000000
Au   -6.6756280187   29.2478373655    0.0000000000
Au  -27.0290660371   13.0165121735    0.0000000000
Au  -27.0290660371  -13.0165121735    0.0000000000
Au   -6.6756280187  -29.2478373655    0.0000000000
Au   18.7046940558  -23.4549444740    0.0000000000
Au    0.0000000000    0.0000000000    0.0000000000
Au   29.8938448236    2.5215157472   25.0000000000
Au   16.6671069911   24.9440883687   25.0000000000
Au   -9.1103023527   28.5832536819   25.0000000000
Au  -28.0274682086   10.6986459805   25.0000000000
Au  -25.8393788473  -15.2422603568   25.0000000000
Au   -4.1937101867  -29.7054337600   25.0000000000
Au   20.6099077806  -21.7998096615   25.0000000000
Au    0.0000000000    0.0000000000   25.0000000000
Au   29.5761305558    5.0251866979   50.0000000000
Au   14.5115666143   26.2567026566   50.0000000000
Au  -11.4805029698   27.7163859758   50.0000000000
Au  -28.8275196580    8.3050653440   50.0000000000
Au  -24.4668260695  -17.3601388844   50.0000000000
Au   -1.6821134184  -29.9528044505   50.0000000000
Au   22.3692649456  -19.9903973395   50.0000000000
Au    0.0000000000    0.0000000000   50.0000000000
