24

Au   30.0000000000    0.0000000000    0.0000000000
Au   18.7046940558   23.4549444740    0.0000000000
Au   -6.6756280187   29.2478373655    0.0000000000
Au  -27.0290660371   13.0165121735    0.0000000000
Au  -27.0290660371  -13.0165121735    0.0000000000
Au   -6.6756280187  -29.2478373655    0.0000000000
Au   18.7046940558  -23.4549444740    0.0000000000
Au    0.0000000000    0.0000000000    0.0000000000
Au   27.2677343241   12.5088234790   25.0000000000
Au    7.2213622664   29.1178970226   25.0000000000
Au  -18.2628428669   23.8006002113   25.0000000000
Au  -29.9947548273    0.5609659972   25.0000000000
Au  -19.1400046213  -23.1010870545   25.0000000000
Au    6.1275594495  -29.3675503778   25.0000000000
Au   26.7809462754  -13.5196492778   25.0000000000
Au    0.0000000000    0.0000000000   25.0000000000
Au   19.5686223448   22.7391516888   50.0000000000
Au   -5.5773482065   29.4769941986   50.0000000000
Au  -26.5234618012   14.0180588557   50.0000000000
Au  -27.4968676795  -11.9967607218   50.0000000000
Au   -7.7645713613  -28.9777747865   50.0000000000
Au   17.8146055604  -24.1379333980   50.0000000000
Au   29.9790211433   -1.1217358368   50.0000000000
Au    0.0000000000    0.0000000000   50.0000000000
