24

Au   30.0000000000    0.0000000000    0.0000000000
Au   18.7046940558   23.4549444740    0.0000000000
Au   -6.6756280187   29.2478373655    0.0000000000
Au  -27.0290660371   13.0165121735    0.0000000000
Au  -27.0290660371  -13.0165121735    0.0000000000
Au   -6.6756280187  -29.2478373655    0.0000000000
Au   18.7046940558  -23.4549444740    0.0000000000
Au    0.0000000000    0.0000000000    0.0000000000
Au   29.9161139156    2.2419028050   25.0000000000
Au   16.8996017440   24.7871632280   25.0000000000
Au   -8.8426552299   28.6671841743   25.0000000000
Au  -27.9262124584   10.9602307334   25.0000000000
Au  -25.9807621148  -14.9999999978   25.0000000000
Au   -4.4712679878  -29.6649247864   25.0000000000
Au   20.4051821312  -21.9915561566   25.0000000000
Au    0.0000000000    0.0000000000   25.0000000000
Au   29.6649247875    4.4712679802   50.0000000000
Au   15.0000000044   25.9807621110   50.0000000000
Au  -10.9602307262   27.9262124612   50.0000000000
Au  -28.6671841721    8.8426552372   50.0000000000
Au  -24.7871632324  -16.8996017377   50.0000000000
Au   -2.2419028127  -29.9161139151   50.0000000000
Au   21.9915561514  -20.4051821369   50.0000000000
Au    0.0000000000    0.0000000000   50.0000000000
