24

Au   30.0000000000    0.0000000000    0.0000000000
Au   18.7046940558   23.4549444740    0.0000000000
Au   -6.6756280187   29.2478373655    0.0000000000
Au  -27.0290660371   13.0165121735    0.0000000000
Au  -27.0290660371  -13.0165121735    0.0000000000
Au   -6.6756280187  -29.2478373655    0.0000000000
Au   18.7046940558  -23.4549444740    0.0000000000
Au    0.0000000000    0.0000000000    0.0000000000
Au   28.5832536824    9.1103023511   25.0000000000
Au   10.6986459820   28.0274682080   25.0000000000
Au  -15.2422603554   25.8393788482   25.0000000000
Au  -29.7054337598    4.1937101884   25.0000000000
Au  -21.7998096626  -20.6099077794   25.0000000000
Au    2.5215157456  -29.8938448237   25.0000000000
Au   24.9440883678  -16.6671069925   25.0000000000
Au    0.0000000000    0.0000000000   25.0000000000
Au   24.4668260715   17.3601388816   50.0000000000
Au    1.6821134218   29.9528044503   50.0000000000
Au  -22.3692649434   19.9903973420   50.0000000000
Au  -29.5761305563   -5.0251866946   50.0000000000
Au  -14.5115666172  -26.2567026550   50.0000000000
Au   11.4805029667  -27.7163859771   50.0000000000
Au   28.8275196571   -8.3050653472   50.0000000000
Au    0.0000000000    0.0000000000   50.0000000000
