24

Au   30.0000000000    0.0000000000    0.0000000000
Au   18.7046940558   23.4549444740    0.0000000000
Au   -6.6756280187   29.2478373655    0.0000000000
Au  -27.0290660371   13.0165121735    0.0000000000
Au  -27.0290660371  -13.0165121735    0.0000000000
Au   -6.6756280187  -29.2478373655    0.0000000000
Au   18.7046940558  -23.4549444740    0.0000000000
Au    0.0000000000    0.0000000000    0.0000000000
Au   28.4968244012    9.3771530351   25.0000000000
Au   10.4361259407   28.1262737551   25.0000000000
Au  -15.4831882113   25.6957366661   25.0000000000
Au  -29.7433458408    3.9157857700   25.0000000000
Au  -21.6061573984  -20.8128316784   25.0000000000
Au    2.8009082502  -29.8689623686   25.0000000000
Au   25.0988328583  -16.4331551794   25.0000000000
Au    0.0000000000    0.0000000000   25.0000000000
Au   24.1379333970   17.8146055617   50.0000000000
Au    1.1217358351   29.9790211434   50.0000000000
Au  -22.7391516899   19.5686223435   50.0000000000
Au  -29.4769941983   -5.5773482082   50.0000000000
Au  -14.0180588542  -26.5234618020   50.0000000000
Au   11.9967607234  -27.4968676788   50.0000000000
Au   28.9777747869   -7.7645713596   50.0000000000
Au    0.0000000000    0.0000000000   50.0000000000
