24

Au   30.0000000000    0.0000000000    0.0000000000
Au   18.7046940558   23.4549444740    0.0000000000
Au   -6.6756280187   29.2478373655    0.0000000000
Au  -27.0290660371   13.0165121735    0.0000000000
Au  -27.0290660371  -13.0165121735    0.0000000000
Au   -6.6756280187  -29.2478373655    0.0000000000
Au   18.7046940558  -23.4549444740    0.0000000000
Au    0.0000000000    0.0000000000    0.0000000000
Au   27.6078335858   11.7391449731   25.0000000000
Au    8.0351695749   28.9039106334   25.0000000000
Au  -17.5881410135   24.3034420544   25.0000000000
Au  -29.9672226860    1.4019859086   25.0000000000
Au  -19.7803744560  -22.5551942217   25.0000000000
Au    5.3014991854  -29.5278530609   25.0000000000
Au   26.3912358094  -14.2654362868   25.0000000000
Au    0.0000000000    0.0000000000   25.0000000000
Au   20.8128316867   21.6061573905   50.0000000000
Au   -3.9157857586   29.7433458423   50.0000000000
Au  -25.6957366602   15.4831882211   50.0000000000
Au  -28.1262737591  -10.4361259300   50.0000000000
Au   -9.3771530460  -28.4968243977   50.0000000000
Au   16.4331551698  -25.0988328646   50.0000000000
Au   29.8689623675   -2.8009082616   50.0000000000
Au    0.0000000000    0.0000000000   50.0000000000
