24

Au   30.0000000000    0.0000000000    0.0000000000
Au   18.7046940558   23.4549444740    0.0000000000
Au   -6.6756280187   29.2478373655    0.0000000000
Au  -27.0290660371   13.0165121735    0.0000000000
Au  -27.0290660371  -13.0165121735    0.0000000000
Au   -6.6756280187  -29.2478373655    0.0000000000
Au   18.7046940558  -23.4549444740    0.0000000000
Au    0.0000000000    0.0000000000    0.0000000000
Au   29.3089749886    6.4018735632   25.0000000000
Au   13.2686607098   26.9061822444   25.0000000000
Au  -12.7632257148   27.1495869094   25.0000000000
Au  -29.1841428538    6.9487988811   25.0000000000
Au  -23.6288051759  -18.4845764344   25.0000000000
Au   -0.2804952607  -29.9986886782   25.0000000000
Au   23.2790333068  -18.9231764855   25.0000000000
Au    0.0000000000    0.0000000000   25.0000000000
Au   27.2677343254   12.5088234763   50.0000000000
Au    7.2213622693   29.1178970219   50.0000000000
Au  -18.2628428645   23.8006002131   50.0000000000
Au  -29.9947548272    0.5609660002   50.0000000000
Au  -19.1400046236  -23.1010870526   50.0000000000
Au    6.1275594466  -29.3675503784   50.0000000000
Au   26.7809462740  -13.5196492805   50.0000000000
Au    0.0000000000    0.0000000000   50.0000000000
