24

Au   30.0000000000    0.0000000000    0.0000000000
Au   18.7046940558   23.4549444740    0.0000000000
Au   -6.6756280187   29.2478373655    0.0000000000
Au  -27.0290660371   13.0165121735    0.0000000000
Au  -27.0290660371  -13.0165121735    0.0000000000
Au   -6.6756280187  -29.2478373655    0.0000000000
Au   18.7046940558  -23.4549444740    0.0000000000
Au    0.0000000000    0.0000000000    0.0000000000
Au   28.4079038863    9.6431839549   25.0000000000
Au   10.1726935581   28.2226204625   25.0000000000
Au  -15.7227625044   25.5498481254   25.0000000000
Au  -29.7786577152    3.6375190279   25.0000000000
Au  -21.4106162926  -21.0139360895   25.0000000000
Au    3.0800558954  -29.8414687253   25.0000000000
Au   25.2513831724  -16.1977667559   25.0000000000
Au    0.0000000000    0.0000000000   25.0000000000
Au   23.8006002142   18.2628428632   50.0000000000
Au    0.5609660019   29.9947548272   50.0000000000
Au  -23.1010870515   19.1400046249   50.0000000000
Au  -29.3675503788   -6.1275594449   50.0000000000
Au  -13.5196492820  -26.7809462733   50.0000000000
Au   12.5088234747  -27.2677343261   50.0000000000
Au   29.1178970215   -7.2213622709   50.0000000000
Au    0.0000000000    0.0000000000   50.0000000000
