24

Au   30.0000000000    0.0000000000    0.0000000000
Au   18.7046940558   23.4549444740    0.0000000000
Au   -6.6756280187   29.2478373655    0.0000000000
Au  -27.0290660371   13.0165121735    0.0000000000
Au  -27.0290660371  -13.0165121735    0.0000000000
Au   -6.6756280187  -29.2478373655    0.0000000000
Au   18.7046940558  -23.4549444740    0.0000000000
Au    0.0000000000    0.0000000000    0.0000000000
Au   29.4769941976    5.5773482115   25.0000000000
Au   14.0180588512   26.5234618035   25.0000000000
Au  -11.9967607265   27.4968676775   25.0000000000
Au  -28.9777747878    7.7645713564   25.0000000000
Au  -24.1379333950  -17.8146055645   25.0000000000
Au   -1.1217358317  -29.9790211435   25.0000000000
Au   22.7391516921  -19.5686223409   25.0000000000
Au    0.0000000000    0.0000000000   25.0000000000
Au   27.9262124618   10.9602307246   50.0000000000
Au    8.8426552388   28.6671841716   50.0000000000
Au  -16.8996017363   24.7871632333   50.0000000000
Au  -29.9161139149    2.2419028144   50.0000000000
Au  -20.4051821381  -21.9915561503   50.0000000000
Au    4.4712679785  -29.6649247878   50.0000000000
Au   25.9807621101  -15.0000000059   50.0000000000
Au    0.0000000000    0.0000000000   50.0000000000
