24

Au   30.0000000000    0.0000000000    0.0000000000
Au   18.7046940558   23.4549444740    0.0000000000
Au   -6.6756280187   29.2478373655    0.0000000000
Au  -27.0290660371   13.0165121735    0.0000000000
Au  -27.0290660371  -13.0165121735    0.0000000000
Au   -6.6756280187  -29.2478373655    0.0000000000
Au   18.7046940558  -23.4549444740    0.0000000000
Au    0.0000000000    0.0000000000    0.0000000000
Au   29.9881987915    0.8413876881   25.0000000000
Au   18.0395127391   23.9703145606   25.0000000000
Au   -7.4932943448   29.0491056637   25.0000000000
Au  -27.3834979518   12.2533277083   25.0000000000
Au  -26.6533690795  -13.7694559338   25.0000000000
Au   -5.8527096607  -29.4235584121   25.0000000000
Au   19.3551595061  -22.9211212748   25.0000000000
Au    0.0000000000    0.0000000000   25.0000000000
Au   29.9528044506    1.6821134167   50.0000000000
Au   17.3601388857   24.4668260685   50.0000000000
Au   -8.3050653423   28.8275196585   50.0000000000
Au  -27.7163859752   11.4805029713   50.0000000000
Au  -26.2567026575  -14.5115666128   50.0000000000
Au   -5.0251866996  -29.5761305555   50.0000000000
Au   19.9903973382  -22.3692649468   50.0000000000
Au    0.0000000000    0.0000000000   50.0000000000
