32

Au   30.0000000000    0.0000000000    0.0000000000
Au   18.7046940558   23.4549444740    0.0000000000
Au   -6.6756280187   29.2478373655    0.0000000000
Au  -27.0290660371   13.0165121735    0.0000000000
Au  -27.0290660371  -13.0165121735    0.0000000000
Au   -6.6756280187  -29.2478373655    0.0000000000
Au   18.7046940558  -23.4549444740    0.0000000000
Au    0.0000000000    0.0000000000    0.0000000000
Au   30.0000000000    0.0000000000   25.0000000000
Au   18.7046940558   23.4549444740   25.0000000000
Au   -6.6756280187   29.2478373655   25.0000000000
Au  -27.0290660371   13.0165121735   25.0000000000
Au  -27.0290660371  -13.0165121735   25.0000000000
Au   -6.6756280187  -29.2478373655   25.0000000000
Au   18.7046940558  -23.4549444740   25.0000000000
Au    0.0000000000    0.0000000000   25.0000000000
Au   30.0000000000    0.0000000000   50.0000000000
Au   18.7046940558   23.4549444740   50.0000000000
Au   -6.6756280187   29.2478373655   50.0000000000
Au  -27.0290660371   13.0165121735   50.0000000000
Au  -27.0290660371  -13.0165121735   50.0000000000
Au   -6.6756280187  -29.2478373655   50.0000000000
Au   18.7046940558  -23.4549444740   50.0000000000
Au    0.0000000000    0.0000000000   50.0000000000
Au   30.0000000000    0.0000000000   75.0000000000
Au   18.7046940558   23.4549444740   75.0000000000
Au   -6.6756280187   29.2478373655   75.0000000000
Au  -27.0290660371   13.0165121735   75.0000000000
Au  -27.0290660371  -13.0165121735   75.0000000000
Au   -6.6756280187  -29.2478373655   75.0000000000
Au   18.7046940558  -23.4549444740   75.0000000000
Au    0.0000000000    0.0000000000   75.0000000000
