32

Au   30.0000000000    0.0000000000    0.0000000000
Au   18.7046940558   23.4549444740    0.0000000000
Au   -6.6756280187   29.2478373655    0.0000000000
Au  -27.0290660371   13.0165121735    0.0000000000
Au  -27.0290660371  -13.0165121735    0.0000000000
Au   -6.6756280187  -29.2478373655    0.0000000000
Au   18.7046940558  -23.4549444740    0.0000000000
Au    0.0000000000    0.0000000000    0.0000000000
Au   28.9039106355    8.0351695671   25.0000000000
Au   11.7391449806   27.6078335826   25.0000000000
Au  -14.2654362797   26.3912358132   25.0000000000
Au  -29.5278530595    5.3014991934   25.0000000000
Au  -22.5551942270  -19.7803744500   25.0000000000
Au    1.4019859005  -29.9672226864   25.0000000000
Au   24.3034420496  -17.5881410200   25.0000000000
Au    0.0000000000    0.0000000000   25.0000000000
Au   25.6957366685   15.4831882073   50.0000000000
Au    3.9157857746   29.7433458402   50.0000000000
Au  -20.8128316750   21.6061574017   50.0000000000
Au  -29.8689623690   -2.8009082455   50.0000000000
Au  -16.4331551833  -25.0988328558   50.0000000000
Au    9.3771530307  -28.4968244027   50.0000000000
Au   28.1262737535  -10.4361259451   50.0000000000
Au    0.0000000000    0.0000000000   50.0000000000
Au   20.6099077899   21.7998096527   75.0000000000
Au   -4.1937101740   29.7054337618   75.0000000000
Au  -25.8393788408   15.2422603678   75.0000000000
Au  -28.0274682132  -10.6986459685   75.0000000000
Au   -9.1103023649  -28.5832536780   75.0000000000
Au   16.6671069805  -24.9440883758   75.0000000000
Au   29.8938448225   -2.5215157600   75.0000000000
Au    0.0000000000    0.0000000000   75.0000000000
