32

Au   30.0000000000    0.0000000000    0.0000000000
Au   18.7046940558   23.4549444740    0.0000000000
Au   -6.6756280187   29.2478373655    0.0000000000
Au  -27.0290660371   13.0165121735    0.0000000000
Au  -27.0290660371  -13.0165121735    0.0000000000
Au   -6.6756280187  -29.2478373655    0.0000000000
Au   18.7046940558  -23.4549444740    0.0000000000
Au    0.0000000000    0.0000000000    0.0000000000
Au   28.1262737579   10.4361259332   25.0000000000
Au    9.3771530428   28.4968243987   25.0000000000
Au  -16.4331551726   25.0988328628   25.0000000000
Au  -29.8689623678    2.8009082582   25.0000000000
Au  -20.8128316842  -21.6061573928   25.0000000000
Au    3.9157857620  -29.7433458418   25.0000000000
Au   25.6957366619  -15.4831882182   25.0000000000
Au    0.0000000000    0.0000000000   25.0000000000
Au   22.7391517005   19.5686223312   50.0000000000
Au   -1.1217358189   29.9790211440   50.0000000000
Au  -24.1379333874   17.8146055747   50.0000000000
Au  -28.9777747911   -7.7645713440   50.0000000000
Au  -11.9967607382  -27.4968676724   50.0000000000
Au   14.0180588399  -26.5234618095   50.0000000000
Au   29.4769941953   -5.5773482241   50.0000000000
Au    0.0000000000    0.0000000000   50.0000000000
Au   14.5115666254   26.2567026505   75.0000000000
Au  -11.4805029580   27.7163859807   75.0000000000
Au  -28.8275196545    8.3050653562   75.0000000000
Au  -24.4668260769  -17.3601388739   75.0000000000
Au   -1.6821134311  -29.9528044497   75.0000000000
Au   22.3692649371  -19.9903973490   75.0000000000
Au   29.5761305579    5.0251866853   75.0000000000
Au    0.0000000000    0.0000000000   75.0000000000
