32

Au   30.0000000000    0.0000000000    0.0000000000
Au   18.7046940558   23.4549444740    0.0000000000
Au   -6.6756280187   29.2478373655    0.0000000000
Au  -27.0290660371   13.0165121735    0.0000000000
Au  -27.0290660371  -13.0165121735    0.0000000000
Au   -6.6756280187  -29.2478373655    0.0000000000
Au   18.7046940558  -23.4549444740    0.0000000000
Au    0.0000000000    0.0000000000    0.0000000000
Au   29.6218224631    4.7484348966   25.0000000000
Au   14.7564283236   26.1198741025   25.0000000000
Au  -11.2208573198   27.8225153609   25.0000000000
Au  -28.7486085376    8.5742350767   25.0000000000
Au  -24.6280711619  -17.1306191028   25.0000000000
Au   -1.9620938801  -29.9357676969   25.0000000000
Au   22.1813801128  -20.1986726369   25.0000000000
Au    0.0000000000    0.0000000000   25.0000000000
Au   28.4968244022    9.3771530323   50.0000000000
Au   10.4361259436   28.1262737541   50.0000000000
Au  -15.4831882087   25.6957366676   50.0000000000
Au  -29.7433458404    3.9157857729   50.0000000000
Au  -21.6061574005  -20.8128316762   50.0000000000
Au    2.8009082472  -29.8689623688   50.0000000000
Au   25.0988328567  -16.4331551819   50.0000000000
Au    0.0000000000    0.0000000000   50.0000000000
Au   26.6533690838   13.7694559255   75.0000000000
Au    5.8527096699   29.4235584102   75.0000000000
Au  -19.3551594989   22.9211212808   75.0000000000
Au  -29.9881987918   -0.8413876787   75.0000000000
Au  -18.0395127466  -23.9703145550   75.0000000000
Au    7.4932943357  -29.0491056661   75.0000000000
Au   27.3834979479  -12.2533277168   75.0000000000
Au    0.0000000000    0.0000000000   75.0000000000
