32

Au   30.0000000000    0.0000000000    0.0000000000
Au   18.7046940558   23.4549444740    0.0000000000
Au   -6.6756280187   29.2478373655    0.0000000000
Au  -27.0290660371   13.0165121735    0.0000000000
Au  -27.0290660371  -13.0165121735    0.0000000000
Au   -6.6756280187  -29.2478373655    0.0000000000
Au   18.7046940558  -23.4549444740    0.0000000000
Au    0.0000000000    0.0000000000    0.0000000000
Au   29.9790211438    1.1217358240   25.0000000000
Au   17.8146055707   24.1379333905   25.0000000000
Au   -7.7645713489   28.9777747898   25.0000000000
Au  -27.4968676744   11.9967607335   25.0000000000
Au  -26.5234618071  -14.0180588444   25.0000000000
Au   -5.5773482191  -29.4769941962   25.0000000000
Au   19.5686223351  -22.7391516972   25.0000000000
Au    0.0000000000    0.0000000000   25.0000000000
Au   29.9161139161    2.2419027991   50.0000000000
Au   16.8996017490   24.7871632247   50.0000000000
Au   -8.8426552241   28.6671841761   50.0000000000
Au  -27.9262124562   10.9602307390   50.0000000000
Au  -25.9807621178  -14.9999999926   50.0000000000
Au   -4.4712679938  -29.6649247855   50.0000000000
Au   20.4051821268  -21.9915561607   50.0000000000
Au    0.0000000000    0.0000000000   50.0000000000
Au   29.8113662982    3.3589342703   75.0000000000
Au   15.9609623063   25.4017259700   75.0000000000
Au   -9.9083718465   28.3164999135   75.0000000000
Au  -28.3164999050    9.9083718708   75.0000000000
Au  -25.4017259837  -15.9609622846   75.0000000000
Au   -3.3589342959  -29.8113662954   75.0000000000
Au   21.2132034265  -21.2132034447   75.0000000000
Au    0.0000000000    0.0000000000   75.0000000000
