40

Au   30.0000000000    0.0000000000    0.0000000000
Au   18.7046940558   23.4549444740    0.0000000000
Au   -6.6756280187   29.2478373655    0.0000000000
Au  -27.0290660371   13.0165121735    0.0000000000
Au  -27.0290660371  -13.0165121735    0.0000000000
Au   -6.6756280187  -29.2478373655    0.0000000000
Au   18.7046940558  -23.4549444740    0.0000000000
Au    0.0000000000    0.0000000000    0.0000000000
Au   27.0290660385   13.0165121705   25.0000000000
Au    6.6756280220   29.2478373647   25.0000000000
Au  -18.7046940531   23.4549444762   25.0000000000
Au  -30.0000000000    0.0000000034   25.0000000000
Au  -18.7046940584  -23.4549444719   25.0000000000
Au    6.6756280154  -29.2478373662   25.0000000000
Au   27.0290660356  -13.0165121766   25.0000000000
Au    0.0000000000    0.0000000000   25.0000000000
Au   18.7046940611   23.4549444698   50.0000000000
Au   -6.6756280121   29.2478373670   50.0000000000
Au  -27.0290660341   13.0165121796   50.0000000000
Au  -27.0290660400  -13.0165121674   50.0000000000
Au   -6.6756280253  -29.2478373639   50.0000000000
Au   18.7046940505  -23.4549444783   50.0000000000
Au   30.0000000000   -0.0000000068   50.0000000000
Au    0.0000000000    0.0000000000   50.0000000000
Au    6.6756280286   29.2478373632   75.0000000000
Au  -18.7046940478   23.4549444804   75.0000000000
Au  -30.0000000000    0.0000000102   75.0000000000
Au  -18.7046940637  -23.4549444677   75.0000000000
Au    6.6756280088  -29.2478373677   75.0000000000
Au   27.0290660327  -13.0165121827   75.0000000000
Au   27.0290660415   13.0165121644   75.0000000000
Au    0.0000000000    0.0000000000   75.0000000000
Au   -6.6756280055   29.2478373685  100.0000000000
Au  -27.0290660312   13.0165121857  100.0000000000
Au  -27.0290660429  -13.0165121613  100.0000000000
Au   -6.6756280319  -29.2478373624  100.0000000000
Au   18.7046940452  -23.4549444825  100.0000000000
Au   30.0000000000   -0.0000000135  100.0000000000
Au   18.7046940663   23.4549444656  100.0000000000
Au    0.0000000000    0.0000000000  100.0000000000
