40

Au   30.0000000000    0.0000000000    0.0000000000
Au   18.7046940558   23.4549444740    0.0000000000
Au   -6.6756280187   29.2478373655    0.0000000000
Au  -27.0290660371   13.0165121735    0.0000000000
Au  -27.0290660371  -13.0165121735    0.0000000000
Au   -6.6756280187  -29.2478373655    0.0000000000
Au   18.7046940558  -23.4549444740    0.0000000000
Au    0.0000000000    0.0000000000    0.0000000000
Au   27.1495869102   12.7632257133   25.0000000000
Au    6.9487988827   29.1841428534   25.0000000000
Au  -18.4845764331   23.6288051769   25.0000000000
Au  -29.9986886781    0.2804952624   25.0000000000
Au  -18.9231764868  -23.2790333057   25.0000000000
Au    6.4018735615  -29.3089749889   25.0000000000
Au   26.9061822436  -13.2686607113   25.0000000000
Au    0.0000000000    0.0000000000   25.0000000000
Au   19.1400046262   23.1010870504   50.0000000000
Au   -6.1275594433   29.3675503791   50.0000000000
Au  -26.7809462725   13.5196492835   50.0000000000
Au  -27.2677343268  -12.5088234732   50.0000000000
Au   -7.2213622726  -29.1178970210   50.0000000000
Au   18.2628428618  -23.8006002152   50.0000000000
Au   29.9947548272   -0.5609660036   50.0000000000
Au    0.0000000000    0.0000000000   50.0000000000
Au    7.4932943605   29.0491056597   75.0000000000
Au  -18.0395127262   23.9703145703   75.0000000000
Au  -29.9881987910    0.8413877042   75.0000000000
Au  -19.3551595184  -22.9211212644   75.0000000000
Au    5.8527096448  -29.4235584152   75.0000000000
Au   26.6533690720  -13.7694559482   75.0000000000
Au   27.3834979584   12.2533276935   75.0000000000
Au    0.0000000000    0.0000000000   75.0000000000
Au   -5.5773481940   29.4769942010  100.0000000000
Au  -26.5234617952   14.0180588670  100.0000000000
Au  -27.4968676846  -11.9967607101  100.0000000000
Au   -7.7645713736  -28.9777747832  100.0000000000
Au   17.8146055501  -24.1379334056  100.0000000000
Au   29.9790211429   -1.1217358495  100.0000000000
Au   19.5686223545   22.7391516805  100.0000000000
Au    0.0000000000    0.0000000000  100.0000000000
