40

Au   30.0000000000    0.0000000000    0.0000000000
Au   18.7046940558   23.4549444740    0.0000000000
Au   -6.6756280187   29.2478373655    0.0000000000
Au  -27.0290660371   13.0165121735    0.0000000000
Au  -27.0290660371  -13.0165121735    0.0000000000
Au   -6.6756280187  -29.2478373655    0.0000000000
Au   18.7046940558  -23.4549444740    0.0000000000
Au    0.0000000000    0.0000000000    0.0000000000
Au   29.2478373658    6.6756280170   25.0000000000
Au   13.0165121751   27.0290660363   25.0000000000
Au  -13.0165121720   27.0290660378   25.0000000000
Au  -29.2478373651    6.6756280203   25.0000000000
Au  -23.4549444751  -18.7046940544   25.0000000000
Au   -0.0000000017  -30.0000000000   25.0000000000
Au   23.4549444730  -18.7046940571   25.0000000000
Au    0.0000000000    0.0000000000   25.0000000000
Au   27.0290660385   13.0165121705   50.0000000000
Au    6.6756280220   29.2478373647   50.0000000000
Au  -18.7046940531   23.4549444762   50.0000000000
Au  -30.0000000000    0.0000000034   50.0000000000
Au  -18.7046940584  -23.4549444719   50.0000000000
Au    6.6756280154  -29.2478373662   50.0000000000
Au   27.0290660356  -13.0165121766   50.0000000000
Au    0.0000000000    0.0000000000   50.0000000000
Au   23.4549444772   18.7046940518   75.0000000000
Au    0.0000000051   30.0000000000   75.0000000000
Au  -23.4549444709   18.7046940597   75.0000000000
Au  -29.2478373666   -6.6756280137   75.0000000000
Au  -13.0165121781  -27.0290660349   75.0000000000
Au   13.0165121690  -27.0290660393   75.0000000000
Au   29.2478373643   -6.6756280236   75.0000000000
Au    0.0000000000    0.0000000000   75.0000000000
Au   18.7046940611   23.4549444698  100.0000000000
Au   -6.6756280121   29.2478373670  100.0000000000
Au  -27.0290660341   13.0165121796  100.0000000000
Au  -27.0290660400  -13.0165121674  100.0000000000
Au   -6.6756280253  -29.2478373639  100.0000000000
Au   18.7046940505  -23.4549444783  100.0000000000
Au   30.0000000000   -0.0000000068  100.0000000000
Au    0.0000000000    0.0000000000  100.0000000000
