40

Au   30.0000000000    0.0000000000    0.0000000000
Au   18.7046940558   23.4549444740    0.0000000000
Au   -6.6756280187   29.2478373655    0.0000000000
Au  -27.0290660371   13.0165121735    0.0000000000
Au  -27.0290660371  -13.0165121735    0.0000000000
Au   -6.6756280187  -29.2478373655    0.0000000000
Au   18.7046940558  -23.4549444740    0.0000000000
Au    0.0000000000    0.0000000000    0.0000000000
Au   29.9881987915    0.8413876881   25.0000000000
Au   18.0395127391   23.9703145606   25.0000000000
Au   -7.4932943448   29.0491056637   25.0000000000
Au  -27.3834979518   12.2533277083   25.0000000000
Au  -26.6533690795  -13.7694559338   25.0000000000
Au   -5.8527096607  -29.4235584121   25.0000000000
Au   19.3551595061  -22.9211212748   25.0000000000
Au    0.0000000000    0.0000000000   25.0000000000
Au   29.9528044506    1.6821134167   50.0000000000
Au   17.3601388857   24.4668260685   50.0000000000
Au   -8.3050653423   28.8275196585   50.0000000000
Au  -27.7163859752   11.4805029713   50.0000000000
Au  -26.2567026575  -14.5115666128   50.0000000000
Au   -5.0251866996  -29.5761305555   50.0000000000
Au   19.9903973382  -22.3692649468   50.0000000000
Au    0.0000000000    0.0000000000   50.0000000000
Au   29.8938448236    2.5215157472   75.0000000000
Au   16.6671069911   24.9440883687   75.0000000000
Au   -9.1103023527   28.5832536819   75.0000000000
Au  -28.0274682086   10.6986459805   75.0000000000
Au  -25.8393788473  -15.2422603568   75.0000000000
Au   -4.1937101867  -29.7054337600   75.0000000000
Au   20.6099077806  -21.7998096615   75.0000000000
Au    0.0000000000    0.0000000000   75.0000000000
Au   29.8113662969    3.3589342823  100.0000000000
Au   15.9609622962   25.4017259764  100.0000000000
Au   -9.9083718579   28.3164999095  100.0000000000
Au  -28.3164999090    9.9083718595  100.0000000000
Au  -25.4017259773  -15.9609622947  100.0000000000
Au   -3.3589342839  -29.8113662967  100.0000000000
Au   21.2132034350  -21.2132034362  100.0000000000
Au    0.0000000000    0.0000000000  100.0000000000
