48

Au   30.0000000000    0.0000000000    0.0000000000
Au   18.7046940558   23.4549444740    0.0000000000
Au   -6.6756280187   29.2478373655    0.0000000000
Au  -27.0290660371   13.0165121735    0.0000000000
Au  -27.0290660371  -13.0165121735    0.0000000000
Au   -6.6756280187  -29.2478373655    0.0000000000
Au   18.7046940558  -23.4549444740    0.0000000000
Au    0.0000000000    0.0000000000    0.0000000000
Au   28.7486085395    8.5742350705   25.0000000000
Au   11.2208573258   27.8225153585   25.0000000000
Au  -14.7564283180   26.1198741057   25.0000000000
Au  -29.6218224620    4.7484349029   25.0000000000
Au  -22.1813801171  -20.1986726322   25.0000000000
Au    1.9620938737  -29.9357676974   25.0000000000
Au   24.6280711582  -17.1306191081   25.0000000000
Au    0.0000000000    0.0000000000   25.0000000000
Au   25.0988328637   16.4331551712   50.0000000000
Au    2.8009082599   29.8689623676   50.0000000000
Au  -21.6061573917   20.8128316854   50.0000000000
Au  -29.7433458420   -3.9157857603   50.0000000000
Au  -15.4831882197  -25.6957366610   50.0000000000
Au   10.4361259316  -28.1262737585   50.0000000000
Au   28.4968243982   -9.3771530444   50.0000000000
Au    0.0000000000    0.0000000000   50.0000000000
Au   19.3551595136   22.9211212685   75.0000000000
Au   -5.8527096511   29.4235584140   75.0000000000
Au  -26.6533690750   13.7694559425   75.0000000000
Au  -27.3834979557  -12.2533276994   75.0000000000
Au   -7.4932943543  -29.0491056613   75.0000000000
Au   18.0395127313  -23.9703145665   75.0000000000
Au   29.9881987912   -0.8413876978   75.0000000000
Au    0.0000000000    0.0000000000   75.0000000000
Au   11.9967607413   27.4968676710  100.0000000000
Au  -14.0180588369   26.5234618111  100.0000000000
Au  -29.4769941946    5.5773482274  100.0000000000
Au  -22.7391517027  -19.5686223287  100.0000000000
Au    1.1217358156  -29.9790211441  100.0000000000
Au   24.1379333854  -17.8146055775  100.0000000000
Au   28.9777747920    7.7645713408  100.0000000000
Au    0.0000000000    0.0000000000  100.0000000000
Au    3.6375190393   29.7786577139  125.0000000000
Au  -21.0139360813   21.4106163006  125.0000000000
Au  -29.8414687264   -3.0800558840  125.0000000000
Au  -16.1977667656  -25.2513831662  125.0000000000
Au    9.6431839440  -28.4079038900  125.0000000000
Au   28.2226204586  -10.1726935689  125.0000000000
Au   25.5498481314   15.7227624947  125.0000000000
Au    0.0000000000    0.0000000000  125.0000000000
