48

Au   30.0000000000    0.0000000000    0.0000000000
Au   18.7046940558   23.4549444740    0.0000000000
Au   -6.6756280187   29.2478373655    0.0000000000
Au  -27.0290660371   13.0165121735    0.0000000000
Au  -27.0290660371  -13.0165121735    0.0000000000
Au   -6.6756280187  -29.2478373655    0.0000000000
Au   18.7046940558  -23.4549444740    0.0000000000
Au    0.0000000000    0.0000000000    0.0000000000
Au   27.3834979531   12.2533277052   25.0000000000
Au    7.4932943481   29.0491056629   25.0000000000
Au  -18.0395127364   23.9703145627   25.0000000000
Au  -29.9881987914    0.8413876914   25.0000000000
Au  -19.3551595087  -22.9211212726   25.0000000000
Au    5.8527096574  -29.4235584127   25.0000000000
Au   26.6533690779  -13.7694559368   25.0000000000
Au    0.0000000000    0.0000000000   25.0000000000
Au   19.9903973433   22.3692649423   50.0000000000
Au   -5.0251866929   29.5761305566   50.0000000000
Au  -26.2567026542   14.5115666187   50.0000000000
Au  -27.7163859778  -11.4805029651   50.0000000000
Au   -8.3050653488  -28.8275196566   50.0000000000
Au   17.3601388802  -24.4668260725   50.0000000000
Au   29.9528044502   -1.6821134235   50.0000000000
Au    0.0000000000    0.0000000000   50.0000000000
Au    9.1103023624   28.5832536788   75.0000000000
Au  -16.6671069827   24.9440883744   75.0000000000
Au  -29.8938448227    2.5215157574   75.0000000000
Au  -20.6099077880  -21.7998096545   75.0000000000
Au    4.1937101766  -29.7054337614   75.0000000000
Au   25.8393788421  -15.2422603656   75.0000000000
Au   28.0274682122   10.6986459710   75.0000000000
Au    0.0000000000    0.0000000000   75.0000000000
Au   -3.3589342705   29.8113662982  100.0000000000
Au  -25.4017259701   15.9609623062  100.0000000000
Au  -28.3164999134   -9.9083718467  100.0000000000
Au   -9.9083718706  -28.3164999051  100.0000000000
Au   15.9609622847  -25.4017259836  100.0000000000
Au   29.8113662954   -3.3589342957  100.0000000000
Au   21.2132034446   21.2132034266  100.0000000000
Au    0.0000000000    0.0000000000  100.0000000000
Au  -15.2422603437   25.8393788550  125.0000000000
Au  -29.7054337579    4.1937102018  125.0000000000
Au  -21.7998096719  -20.6099077695  125.0000000000
Au    2.5215157321  -29.8938448249  125.0000000000
Au   24.9440883603  -16.6671070038  125.0000000000
Au   28.5832536865    9.1103023382  125.0000000000
Au   10.6986459947   28.0274682032  125.0000000000
Au    0.0000000000    0.0000000000  125.0000000000
