48

Au   30.0000000000    0.0000000000    0.0000000000
Au   18.7046940558   23.4549444740    0.0000000000
Au   -6.6756280187   29.2478373655    0.0000000000
Au  -27.0290660371   13.0165121735    0.0000000000
Au  -27.0290660371  -13.0165121735    0.0000000000
Au   -6.6756280187  -29.2478373655    0.0000000000
Au   18.7046940558  -23.4549444740    0.0000000000
Au    0.0000000000    0.0000000000    0.0000000000
Au   28.3164999101    9.9083718563   25.0000000000
Au    9.9083718611   28.3164999084   25.0000000000
Au  -15.9609622933   25.4017259782   25.0000000000
Au  -29.8113662965    3.3589342856   25.0000000000
Au  -21.2132034374  -21.2132034338   25.0000000000
Au    3.3589342806  -29.8113662971   25.0000000000
Au   25.4017259755  -15.9609622976   25.0000000000
Au    0.0000000000    0.0000000000   25.0000000000
Au   23.4549444772   18.7046940518   50.0000000000
Au    0.0000000051   30.0000000000   50.0000000000
Au  -23.4549444709   18.7046940597   50.0000000000
Au  -29.2478373666   -6.6756280137   50.0000000000
Au  -13.0165121781  -27.0290660349   50.0000000000
Au   13.0165121690  -27.0290660393   50.0000000000
Au   29.2478373643   -6.6756280236   50.0000000000
Au    0.0000000000    0.0000000000   50.0000000000
Au   15.9609623019   25.4017259728   75.0000000000
Au   -9.9083718515   28.3164999118   75.0000000000
Au  -28.3164999067    9.9083718658   75.0000000000
Au  -25.4017259809  -15.9609622890   75.0000000000
Au   -3.3589342907  -29.8113662959   75.0000000000
Au   21.2132034302  -21.2132034410   75.0000000000
Au   29.8113662976    3.3589342755   75.0000000000
Au    0.0000000000    0.0000000000   75.0000000000
Au    6.6756280286   29.2478373632  100.0000000000
Au  -18.7046940478   23.4549444804  100.0000000000
Au  -30.0000000000    0.0000000102  100.0000000000
Au  -18.7046940637  -23.4549444677  100.0000000000
Au    6.6756280088  -29.2478373677  100.0000000000
Au   27.0290660327  -13.0165121827  100.0000000000
Au   27.0290660415   13.0165121644  100.0000000000
Au    0.0000000000    0.0000000000  100.0000000000
Au   -3.3589342705   29.8113662982  125.0000000000
Au  -25.4017259701   15.9609623062  125.0000000000
Au  -28.3164999134   -9.9083718467  125.0000000000
Au   -9.9083718706  -28.3164999051  125.0000000000
Au   15.9609622847  -25.4017259836  125.0000000000
Au   29.8113662954   -3.3589342957  125.0000000000
Au   21.2132034446   21.2132034266  125.0000000000
Au    0.0000000000    0.0000000000  125.0000000000
