48

Au   30.0000000000    0.0000000000    0.0000000000
Au   18.7046940558   23.4549444740    0.0000000000
Au   -6.6756280187   29.2478373655    0.0000000000
Au  -27.0290660371   13.0165121735    0.0000000000
Au  -27.0290660371  -13.0165121735    0.0000000000
Au   -6.6756280187  -29.2478373655    0.0000000000
Au   18.7046940558  -23.4549444740    0.0000000000
Au    0.0000000000    0.0000000000    0.0000000000
Au   29.8414687251    3.0800558971   25.0000000000
Au   16.1977667545   25.2513831733   25.0000000000
Au   -9.6431839565   28.4079038857   25.0000000000
Au  -28.2226204631   10.1726935565   25.0000000000
Au  -25.5498481245  -15.7227625059   25.0000000000
Au   -3.6375190262  -29.7786577155   25.0000000000
Au   21.0139360907  -21.4106162914   25.0000000000
Au    0.0000000000    0.0000000000   25.0000000000
Au   29.3675503781    6.1275594483   50.0000000000
Au   13.5196492790   26.7809462748   50.0000000000
Au  -12.5088234778   27.2677343247   50.0000000000
Au  -29.1178970223    7.2213622677   50.0000000000
Au  -23.8006002121  -18.2628428659   50.0000000000
Au   -0.5609659985  -29.9947548273   50.0000000000
Au   23.1010870536  -19.1400046223   50.0000000000
Au    0.0000000000    0.0000000000   50.0000000000
Au   28.5832536842    9.1103023454   75.0000000000
Au   10.6986459876   28.0274682059   75.0000000000
Au  -15.2422603502   25.8393788512   75.0000000000
Au  -29.7054337589    4.1937101943   75.0000000000
Au  -21.7998096667  -20.6099077750   75.0000000000
Au    2.5215157396  -29.8938448242   75.0000000000
Au   24.9440883645  -16.6671069975   75.0000000000
Au    0.0000000000    0.0000000000   75.0000000000
Au   27.4968676805   11.9967607194  100.0000000000
Au    7.7645713638   28.9777747858  100.0000000000
Au  -17.8146055583   24.1379333996  100.0000000000
Au  -29.9790211432    1.1217358394  100.0000000000
Au  -19.5686223468  -22.7391516871  100.0000000000
Au    5.5773482040  -29.4769941991  100.0000000000
Au   26.5234618000  -14.0180588580  100.0000000000
Au    0.0000000000    0.0000000000  100.0000000000
Au   26.1198741109   14.7564283087  125.0000000000
Au    4.7484349135   29.6218224604  125.0000000000
Au  -20.1986726243   22.1813801243  125.0000000000
Au  -29.9357676981   -1.9620938631  125.0000000000
Au  -17.1306191169  -24.6280711521  125.0000000000
Au    8.5742350603  -28.7486085425  125.0000000000
Au   27.8225153545  -11.2208573357  125.0000000000
Au    0.0000000000    0.0000000000  125.0000000000
