48

Au   30.0000000000    0.0000000000    0.0000000000
Au   18.7046940558   23.4549444740    0.0000000000
Au   -6.6756280187   29.2478373655    0.0000000000
Au  -27.0290660371   13.0165121735    0.0000000000
Au  -27.0290660371  -13.0165121735    0.0000000000
Au   -6.6756280187  -29.2478373655    0.0000000000
Au   18.7046940558  -23.4549444740    0.0000000000
Au    0.0000000000    0.0000000000    0.0000000000
Au   29.6649247875    4.4712679802   25.0000000000
Au   15.0000000044   25.9807621110   25.0000000000
Au  -10.9602307262   27.9262124612   25.0000000000
Au  -28.6671841721    8.8426552372   25.0000000000
Au  -24.7871632324  -16.8996017377   25.0000000000
Au   -2.2419028127  -29.9161139151   25.0000000000
Au   21.9915561514  -20.4051821369   25.0000000000
Au    0.0000000000    0.0000000000   25.0000000000
Au   28.6671841766    8.8426552225   50.0000000000
Au   10.9602307405   27.9262124556   50.0000000000
Au  -14.9999999911   25.9807621187   50.0000000000
Au  -29.6649247852    4.4712679954   50.0000000000
Au  -21.9915561619  -20.4051821256   50.0000000000
Au    2.2419027974  -29.9161139162   50.0000000000
Au   24.7871632237  -16.8996017504   50.0000000000
Au    0.0000000000    0.0000000000   50.0000000000
Au   27.0290660437   13.0165121597   75.0000000000
Au    6.6756280337   29.2478373620   75.0000000000
Au  -18.7046940437   23.4549444836   75.0000000000
Au  -30.0000000000    0.0000000154   75.0000000000
Au  -18.7046940678  -23.4549444644   75.0000000000
Au    6.6756280037  -29.2478373689   75.0000000000
Au   27.0290660304  -13.0165121874   75.0000000000
Au    0.0000000000    0.0000000000   75.0000000000
Au   24.7871632410   16.8996017250  100.0000000000
Au    2.2419028280   29.9161139139  100.0000000000
Au  -21.9915561409   20.4051821482  100.0000000000
Au  -29.6649247898   -4.4712679650  100.0000000000
Au  -15.0000000178  -25.9807621033  100.0000000000
Au   10.9602307119  -27.9262124668  100.0000000000
Au   28.6671841675   -8.8426552519  100.0000000000
Au    0.0000000000    0.0000000000  100.0000000000
Au   21.9915561723   20.4051821143  125.0000000000
Au   -2.2419027820   29.9161139174  125.0000000000
Au  -24.7871632150   16.8996017631  125.0000000000
Au  -28.6671841811   -8.8426552078  125.0000000000
Au  -10.9602307549  -27.9262124500  125.0000000000
Au   14.9999999778  -25.9807621264  125.0000000000
Au   29.6649247829   -4.4712680106  125.0000000000
Au    0.0000000000    0.0000000000  125.0000000000
