48

Au   30.0000000000    0.0000000000    0.0000000000
Au   18.7046940558   23.4549444740    0.0000000000
Au   -6.6756280187   29.2478373655    0.0000000000
Au  -27.0290660371   13.0165121735    0.0000000000
Au  -27.0290660371  -13.0165121735    0.0000000000
Au   -6.6756280187  -29.2478373655    0.0000000000
Au   18.7046940558  -23.4549444740    0.0000000000
Au    0.0000000000    0.0000000000    0.0000000000
Au   29.7786577164    3.6375190186   25.0000000000
Au   15.7227625124   25.5498481205   25.0000000000
Au  -10.1726935493   28.2226204657   25.0000000000
Au  -28.4079038833    9.6431839638   25.0000000000
Au  -25.2513831775  -16.1977667480   25.0000000000
Au   -3.0800559047  -29.8414687243   25.0000000000
Au   21.4106162860  -21.0139360962   25.0000000000
Au    0.0000000000    0.0000000000   25.0000000000
Au   29.1178970260    7.2213622527   50.0000000000
Au   12.5088234918   27.2677343183   50.0000000000
Au  -13.5196492652   26.7809462817   50.0000000000
Au  -29.3675503749    6.1275594633   50.0000000000
Au  -23.1010870635  -19.1400046104   50.0000000000
Au    0.5609659831  -29.9947548276   50.0000000000
Au   23.8006002028  -18.2628428781   50.0000000000
Au    0.0000000000    0.0000000000   50.0000000000
Au   28.0274682141   10.6986459661   75.0000000000
Au    9.1103023673   28.5832536772   75.0000000000
Au  -16.6671069783   24.9440883773   75.0000000000
Au  -29.8938448223    2.5215157626   75.0000000000
Au  -20.6099077918  -21.7998096509   75.0000000000
Au    4.1937101715  -29.7054337622   75.0000000000
Au   25.8393788395  -15.2422603701   75.0000000000
Au    0.0000000000    0.0000000000   75.0000000000
Au   26.5234618143   14.0180588308  100.0000000000
Au    5.5773482342   29.4769941933  100.0000000000
Au  -19.5686223234   22.7391517072  100.0000000000
Au  -29.9790211444   -1.1217358086  100.0000000000
Au  -17.8146055830  -24.1379333813  100.0000000000
Au    7.7645713341  -28.9777747938  100.0000000000
Au   27.4968676682  -11.9967607476  100.0000000000
Au    0.0000000000    0.0000000000  100.0000000000
Au   24.6280711741   17.1306190853  125.0000000000
Au    1.9620939014   29.9357676956  125.0000000000
Au  -22.1813800984   20.1986726527  125.0000000000
Au  -29.6218224664   -4.7484348755  125.0000000000
Au  -14.7564283422  -26.1198740920  125.0000000000
Au   11.2208573000  -27.8225153689  125.0000000000
Au   28.7486085315   -8.5742350971  125.0000000000
Au    0.0000000000    0.0000000000  125.0000000000
