48

Au   30.0000000000    0.0000000000    0.0000000000
Au   18.7046940558   23.4549444740    0.0000000000
Au   -6.6756280187   29.2478373655    0.0000000000
Au  -27.0290660371   13.0165121735    0.0000000000
Au  -27.0290660371  -13.0165121735    0.0000000000
Au   -6.6756280187  -29.2478373655    0.0000000000
Au   18.7046940558  -23.4549444740    0.0000000000
Au    0.0000000000    0.0000000000    0.0000000000
Au   28.5832536824    9.1103023511   25.0000000000
Au   10.6986459820   28.0274682080   25.0000000000
Au  -15.2422603554   25.8393788482   25.0000000000
Au  -29.7054337598    4.1937101884   25.0000000000
Au  -21.7998096626  -20.6099077794   25.0000000000
Au    2.5215157456  -29.8938448237   25.0000000000
Au   24.9440883678  -16.6671069925   25.0000000000
Au    0.0000000000    0.0000000000   25.0000000000
Au   24.4668260715   17.3601388816   50.0000000000
Au    1.6821134218   29.9528044503   50.0000000000
Au  -22.3692649434   19.9903973420   50.0000000000
Au  -29.5761305563   -5.0251866946   50.0000000000
Au  -14.5115666172  -26.2567026550   50.0000000000
Au   11.4805029667  -27.7163859771   50.0000000000
Au   28.8275196571   -8.3050653472   50.0000000000
Au    0.0000000000    0.0000000000   50.0000000000
Au   18.0395127445   23.9703145565   75.0000000000
Au   -7.4932943383   29.0491056654   75.0000000000
Au  -27.3834979490   12.2533277145   75.0000000000
Au  -26.6533690826  -13.7694559278   75.0000000000
Au   -5.8527096673  -29.4235584107   75.0000000000
Au   19.3551595009  -22.9211212792   75.0000000000
Au   29.9881987917    0.8413876813   75.0000000000
Au    0.0000000000    0.0000000000   75.0000000000
Au    9.9083718674   28.3164999062  100.0000000000
Au  -15.9609622876   25.4017259818  100.0000000000
Au  -29.8113662958    3.3589342923  100.0000000000
Au  -21.2132034422  -21.2132034290  100.0000000000
Au    3.3589342738  -29.8113662978  100.0000000000
Au   25.4017259719  -15.9609623033  100.0000000000
Au   28.3164999123    9.9083718499  100.0000000000
Au    0.0000000000    0.0000000000  100.0000000000
Au    0.8413876999   29.9881987912  125.0000000000
Au  -22.9211212671   19.3551595152  125.0000000000
Au  -29.4235584144   -5.8527096491  125.0000000000
Au  -13.7694559444  -26.6533690740  125.0000000000
Au   12.2533276975  -27.3834979566  125.0000000000
Au   29.0491056608   -7.4932943563  125.0000000000
Au   23.9703145677   18.0395127297  125.0000000000
Au    0.0000000000    0.0000000000  125.0000000000
