48

Au   30.0000000000    0.0000000000    0.0000000000
Au   18.7046940558   23.4549444740    0.0000000000
Au   -6.6756280187   29.2478373655    0.0000000000
Au  -27.0290660371   13.0165121735    0.0000000000
Au  -27.0290660371  -13.0165121735    0.0000000000
Au   -6.6756280187  -29.2478373655    0.0000000000
Au   18.7046940558  -23.4549444740    0.0000000000
Au    0.0000000000    0.0000000000    0.0000000000
Au   29.1841428560    6.9487988719   25.0000000000
Au   12.7632257233   27.1495869055   25.0000000000
Au  -13.2686607014   26.9061822485   25.0000000000
Au  -29.3089749866    6.4018735724   25.0000000000
Au  -23.2790333127  -18.9231764782   25.0000000000
Au    0.2804952514  -29.9986886782   25.0000000000
Au   23.6288051701  -18.4845764418   25.0000000000
Au    0.0000000000    0.0000000000   25.0000000000
Au   26.7809462825   13.5196492637   50.0000000000
Au    6.1275594650   29.3675503746   50.0000000000
Au  -19.1400046091   23.1010870645   50.0000000000
Au  -29.9947548276   -0.5609659814   50.0000000000
Au  -18.2628428794  -23.8006002017   50.0000000000
Au    7.2213622511  -29.1178970264   50.0000000000
Au   27.2677343176  -12.5088234933   50.0000000000
Au    0.0000000000    0.0000000000   50.0000000000
Au   22.9211212858   19.3551594931   75.0000000000
Au   -0.8413876710   29.9881987920   75.0000000000
Au  -23.9703145504   18.0395127528   75.0000000000
Au  -29.0491056680   -7.4932943283   75.0000000000
Au  -12.2533277239  -27.3834979448   75.0000000000
Au   13.7694559187  -26.6533690873   75.0000000000
Au   29.4235584087   -5.8527096774   75.0000000000
Au    0.0000000000    0.0000000000   75.0000000000
Au   17.8146055858   24.1379333793  100.0000000000
Au   -7.7645713308   28.9777747946  100.0000000000
Au  -27.4968676669   11.9967607507  100.0000000000
Au  -26.5234618159  -14.0180588278  100.0000000000
Au   -5.5773482375  -29.4769941927  100.0000000000
Au   19.5686223209  -22.7391517094  100.0000000000
Au   29.9790211445    1.1217358053  100.0000000000
Au    0.0000000000    0.0000000000  100.0000000000
Au   11.7391450034   27.6078335729  125.0000000000
Au  -14.2654362579   26.3912358250  125.0000000000
Au  -29.5278530551    5.3014992178  125.0000000000
Au  -22.5551942434  -19.7803744313  125.0000000000
Au    1.4019858757  -29.9672226875  125.0000000000
Au   24.3034420351  -17.5881410401  125.0000000000
Au   28.9039106422    8.0351695433  125.0000000000
Au    0.0000000000    0.0000000000  125.0000000000
