48

Au   30.0000000000    0.0000000000    0.0000000000
Au   18.7046940558   23.4549444740    0.0000000000
Au   -6.6756280187   29.2478373655    0.0000000000
Au  -27.0290660371   13.0165121735    0.0000000000
Au  -27.0290660371  -13.0165121735    0.0000000000
Au   -6.6756280187  -29.2478373655    0.0000000000
Au   18.7046940558  -23.4549444740    0.0000000000
Au    0.0000000000    0.0000000000    0.0000000000
Au   29.8113662969    3.3589342823   25.0000000000
Au   15.9609622962   25.4017259764   25.0000000000
Au   -9.9083718579   28.3164999095   25.0000000000
Au  -28.3164999090    9.9083718595   25.0000000000
Au  -25.4017259773  -15.9609622947   25.0000000000
Au   -3.3589342839  -29.8113662967   25.0000000000
Au   21.2132034350  -21.2132034362   25.0000000000
Au    0.0000000000    0.0000000000   25.0000000000
Au   29.2478373658    6.6756280170   50.0000000000
Au   13.0165121751   27.0290660363   50.0000000000
Au  -13.0165121720   27.0290660378   50.0000000000
Au  -29.2478373651    6.6756280203   50.0000000000
Au  -23.4549444751  -18.7046940544   50.0000000000
Au   -0.0000000017  -30.0000000000   50.0000000000
Au   23.4549444730  -18.7046940571   50.0000000000
Au    0.0000000000    0.0000000000   50.0000000000
Au   28.3164999101    9.9083718563   75.0000000000
Au    9.9083718611   28.3164999084   75.0000000000
Au  -15.9609622933   25.4017259782   75.0000000000
Au  -29.8113662965    3.3589342856   75.0000000000
Au  -21.2132034374  -21.2132034338   75.0000000000
Au    3.3589342806  -29.8113662971   75.0000000000
Au   25.4017259755  -15.9609622976   75.0000000000
Au    0.0000000000    0.0000000000   75.0000000000
Au   27.0290660385   13.0165121705  100.0000000000
Au    6.6756280220   29.2478373647  100.0000000000
Au  -18.7046940531   23.4549444762  100.0000000000
Au  -30.0000000000    0.0000000034  100.0000000000
Au  -18.7046940584  -23.4549444719  100.0000000000
Au    6.6756280154  -29.2478373662  100.0000000000
Au   27.0290660356  -13.0165121766  100.0000000000
Au    0.0000000000    0.0000000000  100.0000000000
Au   25.4017259791   15.9609622919  125.0000000000
Au    3.3589342873   29.8113662963  125.0000000000
Au  -21.2132034326   21.2132034386  125.0000000000
Au  -29.8113662973   -3.3589342789  125.0000000000
Au  -15.9609622990  -25.4017259746  125.0000000000
Au    9.9083718547  -28.3164999106  125.0000000000
Au   28.3164999079   -9.9083718626  125.0000000000
Au    0.0000000000    0.0000000000  125.0000000000
