48

Au   30.0000000000    0.0000000000    0.0000000000
Au   18.7046940558   23.4549444740    0.0000000000
Au   -6.6756280187   29.2478373655    0.0000000000
Au  -27.0290660371   13.0165121735    0.0000000000
Au  -27.0290660371  -13.0165121735    0.0000000000
Au   -6.6756280187  -29.2478373655    0.0000000000
Au   18.7046940558  -23.4549444740    0.0000000000
Au    0.0000000000    0.0000000000    0.0000000000
Au   28.6671841748    8.8426552283   25.0000000000
Au   10.9602307350   27.9262124578   25.0000000000
Au  -14.9999999963   25.9807621157   25.0000000000
Au  -29.6649247861    4.4712679895   25.0000000000
Au  -21.9915561578  -20.4051821300   25.0000000000
Au    2.2419028033  -29.9161139158   25.0000000000
Au   24.7871632271  -16.8996017454   25.0000000000
Au    0.0000000000    0.0000000000   25.0000000000
Au   24.7871632343   16.8996017349   50.0000000000
Au    2.2419028161   29.9161139148   50.0000000000
Au  -21.9915561491   20.4051821394   50.0000000000
Au  -29.6649247880   -4.4712679769   50.0000000000
Au  -15.0000000074  -25.9807621093   50.0000000000
Au   10.9602307231  -27.9262124624   50.0000000000
Au   28.6671841711   -8.8426552405   50.0000000000
Au    0.0000000000    0.0000000000   50.0000000000
Au   18.7046940657   23.4549444661   75.0000000000
Au   -6.6756280062   29.2478373683   75.0000000000
Au  -27.0290660315   13.0165121850   75.0000000000
Au  -27.0290660426  -13.0165121620   75.0000000000
Au   -6.6756280311  -29.2478373626   75.0000000000
Au   18.7046940458  -23.4549444820   75.0000000000
Au   30.0000000000   -0.0000000128   75.0000000000
Au    0.0000000000    0.0000000000   75.0000000000
Au   10.9602307468   27.9262124531  100.0000000000
Au  -14.9999999853   25.9807621220  100.0000000000
Au  -29.6649247842    4.4712680021  100.0000000000
Au  -21.9915561665  -20.4051821206  100.0000000000
Au    2.2419027906  -29.9161139167  100.0000000000
Au   24.7871632199  -16.8996017560  100.0000000000
Au   28.6671841786    8.8426552161  100.0000000000
Au    0.0000000000    0.0000000000  100.0000000000
Au    2.2419028288   29.9161139138  125.0000000000
Au  -21.9915561404   20.4051821487  125.0000000000
Au  -29.6649247899   -4.4712679642  125.0000000000
Au  -15.0000000184  -25.9807621029  125.0000000000
Au   10.9602307112  -27.9262124671  125.0000000000
Au   28.6671841673   -8.8426552527  125.0000000000
Au   24.7871632415   16.8996017243  125.0000000000
Au    0.0000000000    0.0000000000  125.0000000000
