56

Au   30.0000000000    0.0000000000    0.0000000000
Au   18.7046940558   23.4549444740    0.0000000000
Au   -6.6756280187   29.2478373655    0.0000000000
Au  -27.0290660371   13.0165121735    0.0000000000
Au  -27.0290660371  -13.0165121735    0.0000000000
Au   -6.6756280187  -29.2478373655    0.0000000000
Au   18.7046940558  -23.4549444740    0.0000000000
Au    0.0000000000    0.0000000000    0.0000000000
Au   29.4769941976    5.5773482115   25.0000000000
Au   14.0180588512   26.5234618035   25.0000000000
Au  -11.9967607265   27.4968676775   25.0000000000
Au  -28.9777747878    7.7645713564   25.0000000000
Au  -24.1379333950  -17.8146055645   25.0000000000
Au   -1.1217358317  -29.9790211435   25.0000000000
Au   22.7391516921  -19.5686223409   25.0000000000
Au    0.0000000000    0.0000000000   25.0000000000
Au   27.9262124618   10.9602307246   50.0000000000
Au    8.8426552388   28.6671841716   50.0000000000
Au  -16.8996017363   24.7871632333   50.0000000000
Au  -29.9161139149    2.2419028144   50.0000000000
Au  -20.4051821381  -21.9915561503   50.0000000000
Au    4.4712679785  -29.6649247878   50.0000000000
Au   25.9807621101  -15.0000000059   50.0000000000
Au    0.0000000000    0.0000000000   50.0000000000
Au   25.4017259823   15.9609622868   75.0000000000
Au    3.3589342933   29.8113662957   75.0000000000
Au  -21.2132034284   21.2132034428   75.0000000000
Au  -29.8113662979   -3.3589342729   75.0000000000
Au  -15.9609623041  -25.4017259714   75.0000000000
Au    9.9083718490  -28.3164999126   75.0000000000
Au   28.3164999059   -9.9083718683   75.0000000000
Au    0.0000000000    0.0000000000   75.0000000000
Au   21.9915561642   20.4051821231  100.0000000000
Au   -2.2419027940   29.9161139165  100.0000000000
Au  -24.7871632218   16.8996017532  100.0000000000
Au  -28.6671841776   -8.8426552193  100.0000000000
Au  -10.9602307437  -27.9262124543  100.0000000000
Au   14.9999999882  -25.9807621204  100.0000000000
Au   29.6649247847   -4.4712679988  100.0000000000
Au    0.0000000000    0.0000000000  100.0000000000
Au   17.8146055809   24.1379333829  125.0000000000
Au   -7.7645713366   28.9777747931  125.0000000000
Au  -27.4968676693   11.9967607452  125.0000000000
Au  -26.5234618131  -14.0180588331  125.0000000000
Au   -5.5773482316  -29.4769941938  125.0000000000
Au   19.5686223254  -22.7391517055  125.0000000000
Au   29.9790211443    1.1217358112  125.0000000000
Au    0.0000000000    0.0000000000  125.0000000000
Au   13.0165121920   27.0290660282  150.0000000000
Au  -13.0165121551   27.0290660460  150.0000000000
Au  -29.2478373609    6.6756280386  150.0000000000
Au  -23.4549444868  -18.7046940398  150.0000000000
Au   -0.0000000205  -30.0000000000  150.0000000000
Au   23.4549444613  -18.7046940718  150.0000000000
Au   29.2478373700    6.6756279987  150.0000000000
Au    0.0000000000    0.0000000000  150.0000000000
