56

Au   30.0000000000    0.0000000000    0.0000000000
Au   18.7046940558   23.4549444740    0.0000000000
Au   -6.6756280187   29.2478373655    0.0000000000
Au  -27.0290660371   13.0165121735    0.0000000000
Au  -27.0290660371  -13.0165121735    0.0000000000
Au   -6.6756280187  -29.2478373655    0.0000000000
Au   18.7046940558  -23.4549444740    0.0000000000
Au    0.0000000000    0.0000000000    0.0000000000
Au   27.8225153615   11.2208573183   25.0000000000
Au    8.5742350783   28.7486085372   25.0000000000
Au  -17.1306191015   24.6280711628   25.0000000000
Au  -29.9357676968    1.9620938818   25.0000000000
Au  -20.1986726381  -22.1813801117   25.0000000000
Au    4.7484348949  -29.6218224633   25.0000000000
Au   26.1198741017  -14.7564283250   25.0000000000
Au    0.0000000000    0.0000000000   25.0000000000
Au   21.6061574029   20.8128316738   50.0000000000
Au   -2.8009082438   29.8689623691   50.0000000000
Au  -25.0988328548   16.4331551847   50.0000000000
Au  -28.4968244032   -9.3771530291   50.0000000000
Au  -10.4361259467  -28.1262737529   50.0000000000
Au   15.4831882058  -25.6957366694   50.0000000000
Au   29.7433458399   -3.9157857763   50.0000000000
Au    0.0000000000    0.0000000000   50.0000000000
Au   12.2533277215   27.3834979458   75.0000000000
Au  -13.7694559210   26.6533690861   75.0000000000
Au  -29.4235584092    5.8527096749   75.0000000000
Au  -22.9211212841  -19.3551594951   75.0000000000
Au    0.8413876736  -29.9881987919   75.0000000000
Au   23.9703145519  -18.0395127507   75.0000000000
Au   29.0491056673    7.4932943308   75.0000000000
Au    0.0000000000    0.0000000000   75.0000000000
Au    1.1217358478   29.9790211429  100.0000000000
Au  -22.7391516816   19.5686223532  100.0000000000
Au  -29.4769942006   -5.5773481957  100.0000000000
Au  -14.0180588655  -26.5234617960  100.0000000000
Au   11.9967607117  -27.4968676839  100.0000000000
Au   28.9777747836   -7.7645713720  100.0000000000
Au   24.1379334046   17.8146055515  100.0000000000
Au    0.0000000000    0.0000000000  100.0000000000
Au  -10.1726935309   28.2226204723  125.0000000000
Au  -28.4079038770    9.6431839823  125.0000000000
Au  -25.2513831880  -16.1977667316  125.0000000000
Au   -3.0800559242  -29.8414687223  125.0000000000
Au   21.4106162723  -21.0139361101  125.0000000000
Au   29.7786577188    3.6375189992  125.0000000000
Au   15.7227625291   25.5498481102  125.0000000000
Au    0.0000000000    0.0000000000  125.0000000000
Au  -19.9903973167   22.3692649661  150.0000000000
Au  -29.9528044522   -1.6821133878  150.0000000000
Au  -17.3601389093  -24.4668260518  150.0000000000
Au    8.3050653145  -28.8275196665  150.0000000000
Au   27.7163859641  -11.4805029981  150.0000000000
Au   26.2567026715   14.5115665875  150.0000000000
Au    5.0251867281   29.5761305506  150.0000000000
Au    0.0000000000    0.0000000000  150.0000000000
