56

Au   30.0000000000    0.0000000000    0.0000000000
Au   18.7046940558   23.4549444740    0.0000000000
Au   -6.6756280187   29.2478373655    0.0000000000
Au  -27.0290660371   13.0165121735    0.0000000000
Au  -27.0290660371  -13.0165121735    0.0000000000
Au   -6.6756280187  -29.2478373655    0.0000000000
Au   18.7046940558  -23.4549444740    0.0000000000
Au    0.0000000000    0.0000000000    0.0000000000
Au   28.0274682098   10.6986459773   25.0000000000
Au    9.1103023559   28.5832536809   25.0000000000
Au  -16.6671069883   24.9440883706   25.0000000000
Au  -29.8938448233    2.5215157506   25.0000000000
Au  -20.6099077830  -21.7998096591   25.0000000000
Au    4.1937101833  -29.7054337605   25.0000000000
Au   25.8393788456  -15.2422603598   25.0000000000
Au    0.0000000000    0.0000000000   25.0000000000
Au   22.3692649502   19.9903973345   50.0000000000
Au   -1.6821134116   29.9528044508   50.0000000000
Au  -24.4668260656   17.3601388899   50.0000000000
Au  -28.8275196599   -8.3050653375   50.0000000000
Au  -11.4805029760  -27.7163859732   50.0000000000
Au   14.5115666083  -26.2567026599   50.0000000000
Au   29.5761305546   -5.0251867046   50.0000000000
Au    0.0000000000    0.0000000000   50.0000000000
Au   13.7694559414   26.6533690756   75.0000000000
Au  -12.2533277005   27.3834979552   75.0000000000
Au  -29.0491056616    7.4932943530   75.0000000000
Au  -23.9703145657  -18.0395127324   75.0000000000
Au   -0.8413876965  -29.9881987913   75.0000000000
Au   22.9211212693  -19.3551595126   75.0000000000
Au   29.4235584137    5.8527096524   75.0000000000
Au    0.0000000000    0.0000000000   75.0000000000
Au    3.3589342940   29.8113662956  100.0000000000
Au  -21.2132034278   21.2132034434  100.0000000000
Au  -29.8113662980   -3.3589342722  100.0000000000
Au  -15.9609623048  -25.4017259710  100.0000000000
Au    9.9083718483  -28.3164999129  100.0000000000
Au   28.3164999056   -9.9083718690  100.0000000000
Au   25.4017259827   15.9609622861  100.0000000000
Au    0.0000000000    0.0000000000  100.0000000000
Au   -7.4932943317   29.0491056671  125.0000000000
Au  -27.3834979462   12.2533277206  125.0000000000
Au  -26.6533690857  -13.7694559218  125.0000000000
Au   -5.8527096740  -29.4235584094  125.0000000000
Au   19.3551594958  -22.9211212835  125.0000000000
Au   29.9881987919    0.8413876745  125.0000000000
Au   18.0395127499   23.9703145525  125.0000000000
Au    0.0000000000    0.0000000000  125.0000000000
Au  -17.3601388719   24.4668260783  150.0000000000
Au  -29.9528044496    1.6821134336  150.0000000000
Au  -19.9903973509  -22.3692649355  150.0000000000
Au    5.0251866829  -29.5761305583  150.0000000000
Au   26.2567026493  -14.5115666276  150.0000000000
Au   27.7163859817   11.4805029557  150.0000000000
Au    8.3050653586   28.8275196538  150.0000000000
Au    0.0000000000    0.0000000000  150.0000000000
