56

Au   30.0000000000    0.0000000000    0.0000000000
Au   18.7046940558   23.4549444740    0.0000000000
Au   -6.6756280187   29.2478373655    0.0000000000
Au  -27.0290660371   13.0165121735    0.0000000000
Au  -27.0290660371  -13.0165121735    0.0000000000
Au   -6.6756280187  -29.2478373655    0.0000000000
Au   18.7046940558  -23.4549444740    0.0000000000
Au    0.0000000000    0.0000000000    0.0000000000
Au   29.9790211438    1.1217358240   25.0000000000
Au   17.8146055707   24.1379333905   25.0000000000
Au   -7.7645713489   28.9777747898   25.0000000000
Au  -27.4968676744   11.9967607335   25.0000000000
Au  -26.5234618071  -14.0180588444   25.0000000000
Au   -5.5773482191  -29.4769941962   25.0000000000
Au   19.5686223351  -22.7391516972   25.0000000000
Au    0.0000000000    0.0000000000   25.0000000000
Au   29.9161139161    2.2419027991   50.0000000000
Au   16.8996017490   24.7871632247   50.0000000000
Au   -8.8426552241   28.6671841761   50.0000000000
Au  -27.9262124562   10.9602307390   50.0000000000
Au  -25.9807621178  -14.9999999926   50.0000000000
Au   -4.4712679938  -29.6649247855   50.0000000000
Au   20.4051821268  -21.9915561607   50.0000000000
Au    0.0000000000    0.0000000000   50.0000000000
Au   29.8113662982    3.3589342703   75.0000000000
Au   15.9609623063   25.4017259700   75.0000000000
Au   -9.9083718465   28.3164999135   75.0000000000
Au  -28.3164999050    9.9083718708   75.0000000000
Au  -25.4017259837  -15.9609622846   75.0000000000
Au   -3.3589342959  -29.8113662954   75.0000000000
Au   21.2132034265  -21.2132034447   75.0000000000
Au    0.0000000000    0.0000000000   75.0000000000
Au   29.6649247893    4.4712679683  100.0000000000
Au   15.0000000148   25.9807621050  100.0000000000
Au  -10.9602307150   27.9262124656  100.0000000000
Au  -28.6671841685    8.8426552487  100.0000000000
Au  -24.7871632391  -16.8996017278  100.0000000000
Au   -2.2419028247  -29.9161139142  100.0000000000
Au   21.9915561432  -20.4051821457  100.0000000000
Au    0.0000000000    0.0000000000  100.0000000000
Au   29.4769942010    5.5773481939  125.0000000000
Au   14.0180588671   26.5234617951  125.0000000000
Au  -11.9967607100   27.4968676847  125.0000000000
Au  -28.9777747831    7.7645713738  125.0000000000
Au  -24.1379334057  -17.8146055500  125.0000000000
Au   -1.1217358497  -29.9790211429  125.0000000000
Au   22.7391516804  -19.5686223546  125.0000000000
Au    0.0000000000    0.0000000000  125.0000000000
Au   29.2478373712    6.6756279936  150.0000000000
Au   13.0165121967   27.0290660259  150.0000000000
Au  -13.0165121504   27.0290660482  150.0000000000
Au  -29.2478373597    6.6756280437  150.0000000000
Au  -23.4549444901  -18.7046940357  150.0000000000
Au   -0.0000000257  -30.0000000000  150.0000000000
Au   23.4549444580  -18.7046940758  150.0000000000
Au    0.0000000000    0.0000000000  150.0000000000
