24

Au                 3.49641600   -0.35491700   -0.70003100
Au                 0.06857400   -0.16568400    0.13408900
Au                -3.23893700    0.10415300    0.54719000
Au                 2.55178600    3.58173900   -0.62821000
Au                 1.40517800    1.36607000   -1.94249100
Au                 2.75595300   -0.81864300   -3.28527200
Au                 1.81823300   -2.63873400   -1.20707100
Au                 3.72360900   -2.77813000    0.88603800
Au                 2.77136500   -0.34287500    1.99937100
Au                 4.21238000    1.81847100    0.83006200
Au                -0.19345500    3.29185300   -0.46505300
Au                -1.47152600    1.19638200   -1.90521200
Au                 0.00560800   -1.07117700   -2.65207500
Au                -0.92378600   -2.90205100   -0.60819800
Au                 0.99842700   -2.55035000    1.55527800
Au                 0.15218200   -0.03418400    3.01065600
Au                 1.46850700    2.09688900    1.54686400
Au                -3.04667300    2.88294500   -0.28199200
Au                -4.34966900    0.96816300   -1.91377000
Au                -2.74790600   -1.31351700   -2.11197500
Au                -3.71615100   -2.67433700    0.12893100
Au                -1.67950000   -1.92731600    1.92717600
Au                -2.71446000    0.23889800    3.38039100
Au                -1.34615700    2.02635200    1.75530400 
