40

Au	-6.353335	-0.41734	0.119461
Au	-2.863591	0.042276	-0.012407
Au	0.006779	-0.002729	-0.090686
Au	2.877464	-0.045522	-0.005109
Au	6.349484	0.422993	0.116903
Au	-5.613641	0.326697	2.836948
Au	-2.819178	0.177907	3.096549
Au	0.001658	6.8e-05	3.234914
Au	2.821715	-0.177492	3.095778
Au	5.613885	-0.328137	2.832678
Au	-4.274277	-1.853261	1.750334
Au	-1.449627	-1.931728	1.676667
Au	1.335823	-2.071234	1.571793
Au	4.124486	-2.289771	1.470807
Au	7.080563	-2.085429	1.108044
Au	-5.983008	-3.220446	0.06901
Au	-2.984471	-3.283299	-0.321883
Au	-0.174425	-3.123056	-0.674291
Au	2.597302	-2.816064	-0.957983
Au	5.31723	-2.170418	-1.040135
Au	-4.656709	-1.69607	-1.867513
Au	-1.88058	-1.479986	-2.296749
Au	0.887222	-1.224816	-2.622906
Au	3.64466	-0.791684	-2.797805
Au	6.488494	-0.219068	-2.681507
Au	-6.492826	0.219249	-2.680289
Au	-3.648021	0.791374	-2.796468
Au	-0.891663	1.218123	-2.613124
Au	1.875859	1.470368	-2.287013
Au	4.652826	1.698757	-1.872755
Au	-5.32035	2.173091	-1.041898
Au	-2.600002	2.818872	-0.957888
Au	0.173277	3.126216	-0.675022
Au	2.983604	3.285667	-0.323989
Au	5.976901	3.227194	0.063064
Au	-7.076931	2.090787	1.112519
Au	-4.122487	2.281132	1.467325
Au	-1.333139	2.067214	1.568331
Au	1.45236	1.931429	1.673939
Au	4.276669	1.858134	1.752357

