48

 Au                 3.34354300    0.36603200   -2.46283500
 Au                 2.07844200   -2.29778500   -2.31122900
 Au                 3.67965400   -2.31921500    0.09915400
 Au                 2.59338500   -1.37276400    2.57947000
 Au                 4.18963000    1.02682200    2.83085600
 Au                 2.88079700    2.90985200    1.00449800
 Au                 4.57470900    2.78722800   -1.37778600
 Au                 0.54684000    0.11551600   -2.53896500
 Au                -0.72117200   -2.47519400   -2.05659200
 Au                 0.89977600   -2.47578200    0.33883000
 Au                -0.19267300   -1.17011100    2.64351300
 Au                 1.37119300    1.24526000    2.89080700
 Au                 0.12862700    2.73581700    0.74773200
 Au                 1.77116600    2.64466000   -1.69261600
 Au                -2.25655500   -0.10509800   -2.56765600
 Au                -3.54683700   -2.56519900   -1.71605400
 Au                -1.82030800   -2.68235900    0.62457600
 Au                -3.02211900   -1.09370400    2.68279000
 Au                -1.46278500    1.39132000    2.82610100
 Au                -2.64614800    2.42957000    0.40958000
 Au                -0.98504400    2.47505900   -1.90626400
 Au                -4.28665400    1.43738300    2.52329000
 Au                 5.36052300   -1.57272800    2.28873100
 Au                -4.51823700   -2.99669000    1.06105700
 Au                 4.82987300   -2.06651100   -2.48824100
 Au                -5.08815100   -0.24402600   -2.62982300
 Au                -3.75469200    2.29201800   -2.25577500
 Au                 5.60324400    3.12855500    1.41321900
 Au                 7.98161400   -0.23950600   -0.37931100
 Au                -8.03635700   -0.67008400    0.66615000
 Au                -5.42156000    2.38374900    0.07268400
 Au                -5.85527500   -0.94715000    2.53401200
 Au                -6.25430000   -2.23068800   -1.01529800
 Au                 6.46971800   -2.67702300   -0.13056800
 Au                 6.15571900    0.54564800   -2.49187000
 Au                 6.99594100    0.84414600    2.10654000
 Au                -6.49034000    2.25204200   -2.60847700
 Au                 4.90214900    0.36840100    0.11637600
 Au                -3.79527400   -0.23084100    0.02740000
 Au                -7.10329200    1.53607600    2.25756500
 Au                -8.14140200    1.95998600   -0.32103900
 Au                -7.88046400   -0.25286000   -2.13471400
 Au                -7.27678300   -3.21386300    1.46922200
 Au                 7.29840500    2.43454000   -0.69532600
 Au                 7.59657100   -1.93171600   -2.61988700
 Au                 8.14998800   -1.74952600    1.99299700
 Au                 2.00768300    0.24281400    0.13197200
 Au                -0.85276900    0.02792900    0.06120500
